Circuit: * C:\Users\saraa\Documents\school\phys490\555timer.asc

Direct Newton iteration for .op point succeeded.

Date: Thu Mar 03 15:52:23 2022
Total elapsed time: 0.433 seconds.

tnom = 27
temp = 27
method = modified trap
totiter = 20734
traniter = 20724
tranpoints = 4489
accept = 3429
rejected = 1060
matrix size = 16
fillins = 0
solver = Normal
Matrix Compiler1: 466 bytes object code size  0.5/0.3/[0.2]
Matrix Compiler2: 968 bytes object code size  0.4/0.5/[0.3]

