Circuit: * C:\Users\saraa\Documents\school\phys490\a1-2e.asc

Direct Newton iteration for .op point succeeded.

Date: Mon Feb 14 14:58:29 2022
Total elapsed time: 0.129 seconds.

tnom = 27
temp = 27
method = modified trap
totiter = 2104
traniter = 2094
tranpoints = 1048
accept = 1048
rejected = 0
matrix size = 6
fillins = 0
solver = Normal
Matrix Compiler1: 146 bytes object code size  0.2/0.2/[0.1]
Matrix Compiler2: 380 bytes object code size  0.2/0.2/[0.2]

