Circuit: * C:\Users\saraa\Documents\school\phys490\fm_1.asc

WARNING: Node N009 is floating.
WARNING: Node N001 is floating.

WARNING: Less than two connections to node N001.  This node is used by C6.
V2: Missing value, assumed 0V @ DC
Direct Newton iteration for .op point succeeded.

Date: Mon Mar 28 13:31:35 2022
Total elapsed time: 0.116 seconds.

tnom = 27
temp = 27
method = modified trap
totiter = 3268
traniter = 3247
tranpoints = 1235
accept = 1175
rejected = 60
matrix size = 12
fillins = 10
solver = Normal
Matrix Compiler1: 1.34 KB object code size  0.9/0.5/[0.3]
Matrix Compiler2: 1.15 KB object code size  0.4/0.5/[0.4]

